Version 4
SHEET 1 880 680
WIRE -144 -80 -336 -80
WIRE 320 -80 -80 -80
WIRE -80 0 -80 -32
WIRE -336 16 -336 -80
WIRE 320 48 320 -80
WIRE -80 112 -80 80
WIRE -336 240 -336 96
WIRE -80 240 -80 192
WIRE -80 240 -336 240
WIRE 320 240 320 128
WIRE 320 240 -80 240
WIRE -336 256 -336 240
FLAG -336 256 0
SYMBOL Misc\\SCR -144 -64 R270
SYMATTR InstName U1
SYMATTR Value SCR01
SYMBOL voltage -336 0 R0
WINDOW 123 0 0 Left 0
WINDOW 39 0 0 Left 0
SYMATTR InstName V1
SYMATTR Value SINE(0 20 50)
SYMBOL voltage -80 96 R0
WINDOW 123 0 0 Left 0
WINDOW 39 0 0 Left 0
SYMATTR InstName V2
SYMATTR Value PULSE(0 5 3m 1n 1n 2m 20m)
SYMBOL res 304 32 R0
SYMATTR InstName R1
SYMATTR Value 10
SYMBOL res -96 -16 R0
SYMATTR InstName R2
SYMATTR Value 1k
TEXT -16 -208 Left 0 !.SUBCKT SCR01    1  2             3\n*     TERMINALS: A  G             K\nQpnp    6          4  1   Pfor      OFF\nQnpn    4          6  5   Nfor      OFF\n*       C          B  E\nRgate   2          6  5\nRon     3          5  50m\n.MODEL  Pfor       PNP(IS=5E-15 BF=5.0)\n.MODEL  Nfor       NPN(IS=1E-12 BF=10.0)\n.ENDS
TEXT -370 280 Left 2 !.tran 0 200m 0 1m
